
**** 12/10/21 15:09:32 ************** PSpice Lite (Mar 2000) *****************

 ** Profile: "SCHEMATIC1-2"  [ C:\Users\21116132\Documents\Elec_Analog\TP5_PARTIE1-2\tp51-SCHEMATIC1-2.sim ] 


 ****     CIRCUIT DESCRIPTION


******************************************************************************




** Creating circuit file "tp51-SCHEMATIC1-2.sim.cir" 
** WARNING: THIS AUTOMATICALLY GENERATED FILE MAY BE OVERWRITTEN BY SUBSEQUENT SIMULATIONS

*Libraries: 
* Local Libraries :
* From [PSPICE NETLIST] section of C:\Program Files\OrcadLite\PSpice\PSpice.ini file:
.lib "nom.lib" 

*Analysis directives: 
.AC DEC 20 1Hz 1MEGHz
.PROBE V(*) I(*) W(*) D(*) NOISE(*) 
.INC ".\tp51-SCHEMATIC1.net" 



**** INCLUDING tp51-SCHEMATIC1.net ****
* source TP51
V_V1         E 0 DC 0Vdc AC 2Vac 
C_C1         0 S1  10n  
C_C2         S2 E  25n  
R_R2         0 S2  20k  
R_R1         E S1  50k  

**** RESUMING tp51-SCHEMATIC1-2.sim.cir ****
.END

**** 12/10/21 15:09:32 ************** PSpice Lite (Mar 2000) *****************

 ** Profile: "SCHEMATIC1-2"  [ C:\Users\21116132\Documents\Elec_Analog\TP5_PARTIE1-2\tp51-SCHEMATIC1-2.sim ] 


 ****     SMALL SIGNAL BIAS SOLUTION       TEMPERATURE =   27.000 DEG C


******************************************************************************



 NODE   VOLTAGE     NODE   VOLTAGE     NODE   VOLTAGE     NODE   VOLTAGE


(    E)    0.0000  (   S1)    0.0000  (   S2)    0.0000  




    VOLTAGE SOURCE CURRENTS
    NAME         CURRENT

    V_V1         0.000E+00

    TOTAL POWER DISSIPATION   0.00E+00  WATTS



          JOB CONCLUDED

          TOTAL JOB TIME             .06
