
**** 12/10/21 14:12:29 ************** PSpice Lite (Mar 2000) *****************

 ** Profile: "SCHEMATIC1-1"  [ C:\Users\21116132\Documents\Elec_Analog\TP5_PARTIE1-2\tp51-SCHEMATIC1-1.sim ] 


 ****     CIRCUIT DESCRIPTION


******************************************************************************




** Creating circuit file "tp51-SCHEMATIC1-1.sim.cir" 
** WARNING: THIS AUTOMATICALLY GENERATED FILE MAY BE OVERWRITTEN BY SUBSEQUENT SIMULATIONS

*Libraries: 
* Local Libraries :
* From [PSPICE NETLIST] section of C:\Program Files\OrcadLite\PSpice\PSpice.ini file:
.lib "nom.lib" 

*Analysis directives: 
.AC DEC 20 1Hz 1MEGHz
.PROBE V(*) I(*) W(*) D(*) NOISE(*) 
.INC ".\tp51-SCHEMATIC1.net" 



**** INCLUDING tp51-SCHEMATIC1.net ****
* source TP51
V_V1         E GND DC 0Vdc AC 2Vac 
C_C1         GND N00190  10n  
R_R1         E N00190  10k  

**** RESUMING tp51-SCHEMATIC1-1.sim.cir ****
.END

ERROR -- Node E is floating
ERROR -- Node GND is floating
ERROR -- Node N00190 is floating